*Heading
** Job name: Strip1_Umat7_Fld Model name: Strip1_Umat7_Fld
** Generated by: Abaqus/CAE 2022
*Preprint, echo=NO, model=NO, history=NO, contact=NO
**
** PARTS
**
*Part, name=Strip
*Node
      1,           0.,           0.
      2, 0.0215061717,           0.
      3, 0.0430123433,           0.
      4, 0.0645185113,           0.
      5, 0.0860246867,           0.
      6,  0.107530855,           0.
      7,  0.129037023,           0.
      8,  0.150543198,           0.
      9,  0.172049373,           0.
     10,  0.193555534,           0.
     11,  0.215061709,           0.
     12,  0.236567885,           0.
     13,  0.258074045,           0.
     14,  0.279580235,           0.
     15,  0.301086396,           0.
     16,  0.322592556,           0.
     17,  0.344098747,           0.
     18,  0.365604907,           0.
     19,  0.387111068,           0.
     20,  0.408617258,           0.
** ... 33137 like lines cut
*Element, type=CPS4T
    1,     1,     2,   469,   468
    2,     2,     3,   470,   469
    3,     3,     4,   471,   470
    4,     4,     5,   472,   471
    5,     5,     6,   473,   472
    6,     6,     7,   474,   473
    7,     7,     8,   475,   474
    8,     8,     9,   476,   475
    9,     9,    10,   477,   476
   10,    10,    11,   478,   477
   11,    11,    12,   479,   478
   12,    12,    13,   480,   479
   13,    13,    14,   481,   480
   14,    14,    15,   482,   481
   15,    15,    16,   483,   482
   16,    16,    17,   484,   483
   17,    17,    18,   485,   484
   18,    18,    19,   486,   485
   19,    19,    20,   487,   486
   20,    20,    21,   488,   487
** ... 32600 like lines cut
*Nset, nset=_PickedSet32, internal, generate
     1,  33157,      1
*Elset, elset=_PickedSet32, internal, generate
     1,  32620,      1
** Section: Plan_Str
*Solid Section, elset=_PickedSet32, material=Umat_Mult
3.,
*End Part
**  
**
** ASSEMBLY
**
*Assembly, name=Assembly
**  
*Instance, name=Strip-1, part=Strip
*End Instance
**  
*Nset, nset=_PickedSet25, internal, instance=Strip-1, generate
     1,  32691,    467
*Elset, elset=_PickedSet25, internal, instance=Strip-1, generate
     1,  32155,    466
*Nset, nset=_PickedSet29, internal, instance=Strip-1
 1,
*Nset, nset=_PickedSet30, internal, instance=Strip-1, generate
     1,  33157,      1
*Elset, elset=_PickedSet30, internal, instance=Strip-1, generate
     1,  32620,      1
*Nset, nset=_PickedSet31, internal, instance=Strip-1, generate
   467,  33157,    467
*Elset, elset=_PickedSet31, internal, instance=Strip-1, generate
   466,  32620,    466
*End Assembly
*Amplitude, name=Amp-1
             0.,              0.,           3800.,              1.,           4000.,              1.
** 
** MATERIALS
** 
*Material, name=Umat_Mult
*Conductivity
 0.0225,
*Density
 1e-09,
*Depvar
      5,
*Specific Heat
 1e+09,
*User Material, constants=7
 1408.4,     1.1,  685.66, -1502.8,  5325.7, -30256.,  38960.
** 
** BOUNDARY CONDITIONS
** 
** Name: Constraint Type: Displacement/Rotation
*Boundary
_PickedSet25, 1, 1
** Name: Pin Type: Symmetry/Antisymmetry/Encastre
*Boundary
_PickedSet29, PINNED
** 
** PREDEFINED FIELDS
** 
** Name: Predefined Field-1   Type: Temperature
*Initial Conditions, type=TEMPERATURE
_PickedSet30, 0.
** ----------------------------------------------------------------
** 
** STEP: Step-1
** 
*Step, name=Step-1, nlgeom=YES, inc=1000000
*Coupled Temperature-displacement, creep=none, steady state
0.1, 4000., 0.00001, 7.
** 
** BOUNDARY CONDITIONS
** 
** Name: Load Type: Displacement/Rotation
*Boundary, amplitude=Amp-1
_PickedSet31, 1, 1, 4.
** 
** OUTPUT REQUESTS
** 
*Restart, write, frequency=0
** 
** FIELD OUTPUT: F-Output-1
** 
*Output, field, frequency=10
*Node Output
CF, RF, U
*Element Output, directions=YES
E, LE, MISES, NE, S, SDV
** 
** HISTORY OUTPUT: H-Output-1
** 
*Output, history, frequency=10
*Energy Output
*End Step
